@<TRIPOS>MOLECULE
lig_31
 50 53 0 0 0
SMALL
GASTEIGER

@<TRIPOS>ATOM
      1 N           0.5400   28.0300    7.7500 N.ar    1  LIG1       -0.1773
      2 C           1.3800   28.9200    6.9700 C.ar    1  LIG1        0.2246
      3 N           2.5000   28.4800    6.4600 N.pl3   1  LIG1       -0.2835
      4 N           1.0700   30.1600    6.9400 N.ar    1  LIG1       -0.1946
      5 C          -0.0900   30.7200    7.4800 C.ar    1  LIG1        0.1665
      6 C          -0.8800   29.9200    8.1800 C.ar    1  LIG1        0.1690
      7 C          -0.5500   28.5300    8.2800 C.ar    1  LIG1        0.2476
      8 O          -1.4400   27.7900    8.9300 O.3     1  LIG1       -0.4745
      9 N          -1.9700   30.7500    8.5700 N.ar    1  LIG1       -0.2289
     10 C          -1.6700   31.9400    8.1300 C.ar    1  LIG1        0.0958
     11 N          -0.5300   31.9600    7.4500 N.ar    1  LIG1       -0.3291
     12 C          -0.8900   26.4100    8.8700 C.3     1  LIG1        0.0941
     13 C          -1.4800   25.6200   10.0800 C.3     1  LIG1       -0.0067
     14 C          -1.1400   26.1800   11.4900 C.3     1  LIG1       -0.0471
     15 C          -1.7600   25.4500   12.6800 C.3     1  LIG1       -0.0527
     16 C          -1.4000   23.8800   12.6400 C.3     1  LIG1       -0.0530
     17 C          -1.7900   23.3600   11.2700 C.3     1  LIG1       -0.0527
     18 C          -1.1800   24.1100   10.0300 C.3     1  LIG1       -0.0471
     19 C           3.1000   27.3000    6.8500 C.ar    1  LIG1        0.0336
     20 C           4.0100   26.7100    5.9500 C.ar    1  LIG1       -0.0394
     21 C           4.7200   25.5700    6.2300 C.ar    1  LIG1       -0.0442
     22 H           5.4300   25.1900    5.5000 H       1  LIG1        0.0630
     23 C           4.5600   24.9000    7.4200 C.ar    1  LIG1        0.0387
     24 C           3.6500   25.4600    8.3900 C.ar    1  LIG1       -0.0442
     25 H           3.4900   24.9800    9.3400 H       1  LIG1        0.0630
     26 C           2.9900   26.6300    8.0700 C.ar    1  LIG1       -0.0394
     27 H           2.9400   29.0300    5.7400 H       1  LIG1        0.1550
     28 H          -2.2900   32.8100    8.2900 H       1  LIG1        0.1027
     29 H          -0.0900   32.7500    7.0100 H       1  LIG1        0.1682
     30 H           0.2000   26.4400    8.9400 H       1  LIG1        0.0700
     31 H          -1.1900   25.9300    7.9400 H       1  LIG1        0.0700
     32 H          -2.5500   25.7700    9.9500 H       1  LIG1        0.0334
     33 H          -1.4700   27.2200   11.5300 H       1  LIG1        0.0269
     34 H          -0.0500   26.1400   11.6100 H       1  LIG1        0.0269
     35 H          -2.8400   25.5700   12.6400 H       1  LIG1        0.0265
     36 H          -1.3800   25.8800   13.6000 H       1  LIG1        0.0265
     37 H          -1.9500   23.3600   13.4200 H       1  LIG1        0.0265
     38 H          -0.3300   23.7500   12.8000 H       1  LIG1        0.0265
     39 H          -2.8800   23.4200   11.1900 H       1  LIG1        0.0265
     40 H          -1.4900   22.3200   11.2100 H       1  LIG1        0.0265
     41 H          -0.1000   23.9500   10.0200 H       1  LIG1        0.0269
     42 H          -1.6100   23.6900    9.1100 H       1  LIG1        0.0269
     43 H           4.1500   27.1800    4.9900 H       1  LIG1        0.0636
     44 H           2.3500   27.0600    8.8200 H       1  LIG1        0.0636
     45 C           5.5660   23.3660    9.6070 C.3     1  LIG1        0.0163
     46 H           6.4500   22.8090    9.9360 H       1  LIG1        0.0368
     47 H           5.5950   24.3970    9.9710 H       1  LIG1        0.0368
     48 H           4.6700   22.8740    9.9960 H       1  LIG1        0.0368
     49 S           5.4810   23.3500    7.7720 S.O     1  LIG1        0.0507
     50 O           6.8950   23.5540    7.2660 O.2     1  LIG1       -0.2524
@<TRIPOS>BOND
     1    20    43    1
     2    21    22    1
     3     3    27    1
     4    20    21   ar
     5    19    20   ar
     6    21    23   ar
     7     3    19    1
     8     2     3    1
     9    19    26   ar
    10     2     4   ar
    11     4     5   ar
    12     1     2   ar
    13    11    29    1
    14    49    50    2
    15    23    49    1
    16    23    24   ar
    17     5    11   ar
    18    10    11   ar
    19     5     6   ar
    20     1     7   ar
    21    45    49    1
    22    12    31    1
    23    24    26   ar
    24    26    44    1
    25    10    28    1
    26     9    10   ar
    27     6     7   ar
    28     6     9   ar
    29     7     8    1
    30    24    25    1
    31     8    12    1
    32    12    30    1
    33    12    13    1
    34    18    42    1
    35    45    46    1
    36    45    47    1
    37    45    48    1
    38    13    32    1
    39    18    41    1
    40    13    18    1
    41    17    18    1
    42    13    14    1
    43    17    39    1
    44    17    40    1
    45    16    17    1
    46    14    33    1
    47    14    34    1
    48    14    15    1
    49    15    16    1
    50    16    38    1
    51    16    37    1
    52    15    35    1
    53    15    36    1
