@<TRIPOS>MOLECULE
lig_30
 51 54 0 0 0
SMALL
GASTEIGER
****
Structure written by MMmdl.
@<TRIPOS>ATOM
      1 N           0.5400   28.0300    7.7500 N.ar    1  LIG1       -0.1773
      2 C           1.3800   28.9200    6.9700 C.ar    1  LIG1        0.2246
      3 N           2.5000   28.4800    6.4600 N.pl3   1  LIG1       -0.2835
      4 N           1.0700   30.1600    6.9400 N.ar    1  LIG1       -0.1946
      5 C          -0.0900   30.7200    7.4800 C.ar    1  LIG1        0.1665
      6 C          -0.8800   29.9200    8.1800 C.ar    1  LIG1        0.1690
      7 C          -0.5500   28.5300    8.2800 C.ar    1  LIG1        0.2476
      8 O          -1.4400   27.7900    8.9300 O.3     1  LIG1       -0.4745
      9 N          -1.9700   30.7500    8.5700 N.ar    1  LIG1       -0.2289
     10 C          -1.6700   31.9400    8.1300 C.ar    1  LIG1        0.0958
     11 N          -0.5300   31.9600    7.4500 N.ar    1  LIG1       -0.3291
     12 C          -0.8900   26.4100    8.8700 C.3     1  LIG1        0.0941
     13 C          -1.4800   25.6200   10.0800 C.3     1  LIG1       -0.0067
     14 C          -1.1400   26.1800   11.4900 C.3     1  LIG1       -0.0471
     15 C          -1.7600   25.4500   12.6800 C.3     1  LIG1       -0.0527
     16 C          -1.4000   23.8800   12.6400 C.3     1  LIG1       -0.0530
     17 C          -1.7900   23.3600   11.2700 C.3     1  LIG1       -0.0527
     18 C          -1.1800   24.1100   10.0300 C.3     1  LIG1       -0.0471
     19 C           3.1000   27.3000    6.8500 C.ar    1  LIG1        0.0337
     20 C           4.0100   26.7100    5.9500 C.ar    1  LIG1       -0.0387
     21 C           4.7200   25.5700    6.2300 C.ar    1  LIG1       -0.0351
     22 C           4.5600   24.9000    7.4200 C.ar    1  LIG1        0.0880
     23 C           3.6500   25.4600    8.3900 C.ar    1  LIG1       -0.0351
     24 C           2.9900   26.6300    8.0700 C.ar    1  LIG1       -0.0387
     25 S           5.5100   23.4800    7.7800 S.O2    1  LIG1       -0.0059
     26 O           6.8500   23.7200    7.2600 O.2     1  LIG1       -0.1696
     27 O           4.8700   22.2500    7.3400 O.2     1  LIG1       -0.1696
     28 C           5.6400   23.3600    9.3500 C.3     1  LIG1        0.0596
     29 H           2.9400   29.0300    5.7400 H       1  LIG1        0.1550
     30 H          -2.2900   32.8100    8.2900 H       1  LIG1        0.1027
     31 H          -0.0900   32.7500    7.0100 H       1  LIG1        0.1682
     32 H           0.2000   26.4400    8.9400 H       1  LIG1        0.0700
     33 H          -1.1900   25.9300    7.9400 H       1  LIG1        0.0700
     34 H          -2.5500   25.7700    9.9500 H       1  LIG1        0.0334
     35 H          -1.4700   27.2200   11.5300 H       1  LIG1        0.0269
     36 H          -0.0500   26.1400   11.6100 H       1  LIG1        0.0269
     37 H          -2.8400   25.5700   12.6400 H       1  LIG1        0.0265
     38 H          -1.3800   25.8800   13.6000 H       1  LIG1        0.0265
     39 H          -1.9500   23.3600   13.4200 H       1  LIG1        0.0265
     40 H          -0.3300   23.7500   12.8000 H       1  LIG1        0.0265
     41 H          -2.8800   23.4200   11.1900 H       1  LIG1        0.0265
     42 H          -1.4900   22.3200   11.2100 H       1  LIG1        0.0265
     43 H          -0.1000   23.9500   10.0200 H       1  LIG1        0.0269
     44 H          -1.6100   23.6900    9.1100 H       1  LIG1        0.0269
     45 H           4.1500   27.1800    4.9900 H       1  LIG1        0.0637
     46 H           5.4300   25.1900    5.5000 H       1  LIG1        0.0637
     47 H           3.4900   24.9800    9.3400 H       1  LIG1        0.0637
     48 H           2.3500   27.0600    8.8200 H       1  LIG1        0.0637
     49 H           6.0800   24.1900    9.7200 H       1  LIG1        0.0468
     50 H           6.2000   22.5500    9.5800 H       1  LIG1        0.0468
     51 H           4.6500   23.2500    9.7900 H       1  LIG1        0.0468
@<TRIPOS>BOND
     1     1     2   ar
     2     1     7   ar
     3     2     3    1
     4     2     4   ar
     5     3    19    1
     6     3    29    1
     7     4     5   ar
     8     5     6   ar
     9     5    11   ar
    10     6     7   ar
    11     6     9   ar
    12     7     8    1
    13     8    12    1
    14     9    10   ar
    15    10    11   ar
    16    10    30    1
    17    11    31    1
    18    12    13    1
    19    12    32    1
    20    12    33    1
    21    13    14    1
    22    13    18    1
    23    13    34    1
    24    14    15    1
    25    14    35    1
    26    14    36    1
    27    15    16    1
    28    15    37    1
    29    15    38    1
    30    16    17    1
    31    16    39    1
    32    16    40    1
    33    17    18    1
    34    17    41    1
    35    17    42    1
    36    18    43    1
    37    18    44    1
    38    19    20   ar
    39    19    24   ar
    40    20    21   ar
    41    20    45    1
    42    21    22   ar
    43    21    46    1
    44    22    23   ar
    45    22    25    1
    46    23    24   ar
    47    23    47    1
    48    24    48    1
    49    25    26    2
    50    25    27    2
    51    25    28    1
    52    28    49    1
    53    28    50    1
    54    28    51    1
