@<TRIPOS>MOLECULE
lig_21
 49 52 0 0 0
SMALL
GASTEIGER
****
Structure written by MMmdl.
@<TRIPOS>ATOM
      1 N           0.5400   28.0300    7.7500 N.ar    1  LIG1       -0.1773
      2 C           1.3800   28.9200    6.9700 C.ar    1  LIG1        0.2246
      3 N           2.5000   28.4800    6.4600 N.pl3   1  LIG1       -0.2834
      4 N           1.0700   30.1600    6.9400 N.ar    1  LIG1       -0.1946
      5 C          -0.0900   30.7200    7.4800 C.ar    1  LIG1        0.1665
      6 C          -0.8800   29.9200    8.1800 C.ar    1  LIG1        0.1690
      7 C          -0.5500   28.5300    8.2800 C.ar    1  LIG1        0.2476
      8 O          -1.4400   27.7900    8.9300 O.3     1  LIG1       -0.4745
      9 N          -1.9700   30.7500    8.5700 N.ar    1  LIG1       -0.2289
     10 C          -1.6700   31.9400    8.1300 C.ar    1  LIG1        0.0958
     11 N          -0.5300   31.9600    7.4500 N.ar    1  LIG1       -0.3291
     12 C          -0.8900   26.4100    8.8700 C.3     1  LIG1        0.0941
     13 C          -1.4800   25.6200   10.0800 C.3     1  LIG1       -0.0067
     14 C          -1.1400   26.1800   11.4900 C.3     1  LIG1       -0.0471
     15 C          -1.7600   25.4500   12.6800 C.3     1  LIG1       -0.0527
     16 C          -1.4000   23.8800   12.6400 C.3     1  LIG1       -0.0530
     17 C          -1.7900   23.3600   11.2700 C.3     1  LIG1       -0.0527
     18 C          -1.1800   24.1100   10.0300 C.3     1  LIG1       -0.0471
     19 C           3.1000   27.3000    6.8500 C.ar    1  LIG1        0.0370
     20 C           4.0100   26.7100    5.9500 C.ar    1  LIG1       -0.0402
     21 C           4.7200   25.5700    6.2300 C.ar    1  LIG1       -0.0566
     22 H           5.4300   25.1900    5.5000 H       1  LIG1        0.0619
     23 C           4.5600   24.9000    7.4200 C.ar    1  LIG1       -0.0198
     24 H           5.1000   23.9800    7.6300 H       1  LIG1        0.0654
     25 C           3.6500   25.4600    8.3900 C.ar    1  LIG1        0.1219
     26 O           3.4300   24.8200    9.6400 O.3     1  LIG1       -0.4951
     27 C           3.3400   25.7100   10.7600 C.3     1  LIG1        0.0788
     28 H           3.1800   25.1300   11.6700 H       1  LIG1        0.0660
     29 H           2.5100   26.3900   10.6100 H       1  LIG1        0.0660
     30 H           4.2700   26.2700   10.8600 H       1  LIG1        0.0660
     31 C           2.9900   26.6300    8.0700 C.ar    1  LIG1        0.0013
     32 H           2.9400   29.0300    5.7400 H       1  LIG1        0.1550
     33 H          -2.2900   32.8100    8.2900 H       1  LIG1        0.1027
     34 H          -0.0900   32.7500    7.0100 H       1  LIG1        0.1682
     35 H           0.2000   26.4400    8.9400 H       1  LIG1        0.0700
     36 H          -1.1900   25.9300    7.9400 H       1  LIG1        0.0700
     37 H          -2.5500   25.7700    9.9500 H       1  LIG1        0.0334
     38 H          -1.4700   27.2200   11.5300 H       1  LIG1        0.0269
     39 H          -0.0500   26.1400   11.6100 H       1  LIG1        0.0269
     40 H          -2.8400   25.5700   12.6400 H       1  LIG1        0.0265
     41 H          -1.3800   25.8800   13.6000 H       1  LIG1        0.0265
     42 H          -1.9500   23.3600   13.4200 H       1  LIG1        0.0265
     43 H          -0.3300   23.7500   12.8000 H       1  LIG1        0.0265
     44 H          -2.8800   23.4200   11.1900 H       1  LIG1        0.0265
     45 H          -1.4900   22.3200   11.2100 H       1  LIG1        0.0265
     46 H          -0.1000   23.9500   10.0200 H       1  LIG1        0.0269
     47 H          -1.6100   23.6900    9.1100 H       1  LIG1        0.0269
     48 H           4.1500   27.1800    4.9900 H       1  LIG1        0.0636
     49 H           2.3500   27.0600    8.8200 H       1  LIG1        0.0673
@<TRIPOS>BOND
     1     1     2   ar
     2     1     7   ar
     3     2     3    1
     4     2     4   ar
     5     3    19    1
     6     3    32    1
     7     4     5   ar
     8     5     6   ar
     9     5    11   ar
    10     6     7   ar
    11     6     9   ar
    12     7     8    1
    13     8    12    1
    14     9    10   ar
    15    10    11   ar
    16    10    33    1
    17    11    34    1
    18    12    13    1
    19    12    35    1
    20    12    36    1
    21    13    14    1
    22    13    18    1
    23    13    37    1
    24    14    15    1
    25    14    38    1
    26    14    39    1
    27    15    16    1
    28    15    40    1
    29    15    41    1
    30    16    17    1
    31    16    42    1
    32    16    43    1
    33    17    18    1
    34    17    44    1
    35    17    45    1
    36    18    46    1
    37    18    47    1
    38    19    20   ar
    39    19    31   ar
    40    20    21   ar
    41    20    48    1
    42    21    22    1
    43    21    23   ar
    44    23    24    1
    45    23    25   ar
    46    25    26    1
    47    25    31   ar
    48    26    27    1
    49    27    28    1
    50    27    29    1
    51    27    30    1
    52    31    49    1
