@<TRIPOS>MOLECULE
lig_1oiu
 50 53 0 0 0
SMALL
GASTEIGER
****
Structure written by MMmdl.
@<TRIPOS>ATOM
      1 N           0.5400   28.0300    7.7500 N.ar    1  LIG1       -0.1773
      2 C           1.3800   28.9200    6.9700 C.ar    1  LIG1        0.2246
      3 N           2.5000   28.4800    6.4600 N.pl3   1  LIG1       -0.2834
      4 N           1.0700   30.1600    6.9400 N.ar    1  LIG1       -0.1946
      5 C          -0.0900   30.7200    7.4800 C.ar    1  LIG1        0.1665
      6 C          -0.8800   29.9200    8.1800 C.ar    1  LIG1        0.1690
      7 C          -0.5500   28.5300    8.2800 C.ar    1  LIG1        0.2476
      8 O          -1.4400   27.7900    8.9300 O.3     1  LIG1       -0.4745
      9 N          -1.9700   30.7500    8.5700 N.ar    1  LIG1       -0.2289
     10 C          -1.6700   31.9400    8.1300 C.ar    1  LIG1        0.0958
     11 N          -0.5300   31.9600    7.4500 N.ar    1  LIG1       -0.3291
     12 C          -0.8900   26.4100    8.8700 C.3     1  LIG1        0.0941
     13 C          -1.4800   25.6200   10.0800 C.3     1  LIG1       -0.0067
     14 C          -1.1400   26.1800   11.4900 C.3     1  LIG1       -0.0471
     15 C          -1.7600   25.4500   12.6800 C.3     1  LIG1       -0.0527
     16 C          -1.4000   23.8800   12.6400 C.3     1  LIG1       -0.0530
     17 C          -1.7900   23.3600   11.2700 C.3     1  LIG1       -0.0527
     18 C          -1.1800   24.1100   10.0300 C.3     1  LIG1       -0.0471
     19 C           3.1000   27.3000    6.8500 C.ar    1  LIG1        0.0354
     20 C           3.9100   26.6500    5.9000 C.ar    1  LIG1       -0.0141
     21 C           4.6200   25.4900    6.1700 C.ar    1  LIG1        0.1068
     22 C           4.5400   24.8800    7.4000 C.ar    1  LIG1       -0.0352
     23 H           5.0700   23.9600    7.6000 H       1  LIG1        0.0637
     24 C           3.7300   25.5200    8.4100 C.ar    1  LIG1       -0.0582
     25 H           3.6400   25.0800    9.4000 H       1  LIG1        0.0619
     26 C           3.0800   26.6900    8.1100 C.ar    1  LIG1       -0.0404
     27 H           2.9400   29.0300    5.7400 H       1  LIG1        0.1550
     28 H          -2.2900   32.8100    8.2900 H       1  LIG1        0.1027
     29 H          -0.0900   32.7500    7.0100 H       1  LIG1        0.1682
     30 H           0.2000   26.4400    8.9400 H       1  LIG1        0.0700
     31 H          -1.1900   25.9300    7.9400 H       1  LIG1        0.0700
     32 H          -2.5500   25.7700    9.9500 H       1  LIG1        0.0334
     33 H          -1.4700   27.2200   11.5300 H       1  LIG1        0.0269
     34 H          -0.0500   26.1400   11.6100 H       1  LIG1        0.0269
     35 H          -2.8400   25.5700   12.6400 H       1  LIG1        0.0265
     36 H          -1.3800   25.8800   13.6000 H       1  LIG1        0.0265
     37 H          -1.9500   23.3600   13.4200 H       1  LIG1        0.0265
     38 H          -0.3300   23.7500   12.8000 H       1  LIG1        0.0265
     39 H          -2.8800   23.4200   11.1900 H       1  LIG1        0.0265
     40 H          -1.4900   22.3200   11.2100 H       1  LIG1        0.0265
     41 H          -0.1000   23.9500   10.0200 H       1  LIG1        0.0269
     42 H          -1.6100   23.6900    9.1100 H       1  LIG1        0.0269
     43 H           3.9800   27.0700    4.9100 H       1  LIG1        0.0656
     44 H           2.5200   27.1700    8.8900 H       1  LIG1        0.0636
     45 S           5.6000   24.8100    4.9600 S.O2    1  LIG1        0.0560
     46 N           7.2200   24.6200    5.6900 N.3     1  LIG1       -0.2035
     47 H           7.5400   25.5000    6.0500 H       1  LIG1        0.1442
     48 H           7.8600   24.2900    4.9900 H       1  LIG1        0.1442
     49 O           5.0800   23.4900    4.6800 O.2     1  LIG1       -0.1533
     50 O           5.7100   25.7900    3.9000 O.2     1  LIG1       -0.1533
@<TRIPOS>BOND
     1     1     2   ar
     2     1     7   ar
     3     2     3    1
     4     2     4   ar
     5     3    19    1
     6     3    27    1
     7     4     5   ar
     8     5     6   ar
     9     5    11   ar
    10     6     7   ar
    11     6     9   ar
    12     7     8    1
    13     8    12    1
    14     9    10   ar
    15    10    11   ar
    16    10    28    1
    17    11    29    1
    18    12    13    1
    19    12    30    1
    20    12    31    1
    21    13    14    1
    22    13    18    1
    23    13    32    1
    24    14    15    1
    25    14    33    1
    26    14    34    1
    27    15    16    1
    28    15    35    1
    29    15    36    1
    30    16    17    1
    31    16    37    1
    32    16    38    1
    33    17    18    1
    34    17    39    1
    35    17    40    1
    36    18    41    1
    37    18    42    1
    38    19    20   ar
    39    19    26   ar
    40    20    21   ar
    41    20    43    1
    42    21    22   ar
    43    21    45    1
    44    22    23    1
    45    22    24   ar
    46    24    25    1
    47    24    26   ar
    48    26    44    1
    49    45    46    1
    50    45    49    2
    51    45    50    2
    52    46    47    1
    53    46    48    1
