@<TRIPOS>MOLECULE
lig_32
 54 57 0 0 0
SMALL
GASTEIGER
****
Structure written by MMmdl.
@<TRIPOS>ATOM
      1 N           0.5400   28.0300    7.7500 N.ar    1  LIG1       -0.1773
      2 C           1.3800   28.9200    6.9700 C.ar    1  LIG1        0.2246
      3 N           2.5000   28.4800    6.4600 N.pl3   1  LIG1       -0.2834
      4 N           1.0700   30.1600    6.9400 N.ar    1  LIG1       -0.1946
      5 C          -0.0900   30.7200    7.4800 C.ar    1  LIG1        0.1665
      6 C          -0.8800   29.9200    8.1800 C.ar    1  LIG1        0.1690
      7 C          -0.5500   28.5300    8.2800 C.ar    1  LIG1        0.2476
      8 O          -1.4400   27.7900    8.9300 O.3     1  LIG1       -0.4745
      9 N          -1.9700   30.7500    8.5700 N.ar    1  LIG1       -0.2289
     10 C          -1.6700   31.9400    8.1300 C.ar    1  LIG1        0.0958
     11 N          -0.5300   31.9600    7.4500 N.ar    1  LIG1       -0.3291
     12 C          -0.8900   26.4100    8.8700 C.3     1  LIG1        0.0941
     13 C          -1.4800   25.6200   10.0800 C.3     1  LIG1       -0.0067
     14 C          -1.1400   26.1800   11.4900 C.3     1  LIG1       -0.0471
     15 C          -1.7600   25.4500   12.6800 C.3     1  LIG1       -0.0527
     16 C          -1.4000   23.8800   12.6400 C.3     1  LIG1       -0.0530
     17 C          -1.7900   23.3600   11.2700 C.3     1  LIG1       -0.0527
     18 C          -1.1800   24.1100   10.0300 C.3     1  LIG1       -0.0471
     19 C           3.1000   27.3000    6.8500 C.ar    1  LIG1        0.0372
     20 C           4.0100   26.7100    5.9500 C.ar    1  LIG1       -0.0384
     21 C           4.7200   25.5700    6.2300 C.ar    1  LIG1       -0.0300
     22 C           4.5600   24.9000    7.4200 C.ar    1  LIG1        0.1465
     23 C           3.6500   25.4600    8.3900 C.ar    1  LIG1        0.1481
     24 C           2.9900   26.6300    8.0700 C.ar    1  LIG1        0.0032
     25 H           2.9400   29.0300    5.7400 H       1  LIG1        0.1550
     26 H          -2.2900   32.8100    8.2900 H       1  LIG1        0.1027
     27 H          -0.0900   32.7500    7.0100 H       1  LIG1        0.1682
     28 H           0.2000   26.4400    8.9400 H       1  LIG1        0.0700
     29 H          -1.1900   25.9300    7.9400 H       1  LIG1        0.0700
     30 H          -2.5500   25.7700    9.9500 H       1  LIG1        0.0334
     31 H          -1.4700   27.2200   11.5300 H       1  LIG1        0.0269
     32 H          -0.0500   26.1400   11.6100 H       1  LIG1        0.0269
     33 H          -2.8400   25.5700   12.6400 H       1  LIG1        0.0265
     34 H          -1.3800   25.8800   13.6000 H       1  LIG1        0.0265
     35 H          -1.9500   23.3600   13.4200 H       1  LIG1        0.0265
     36 H          -0.3300   23.7500   12.8000 H       1  LIG1        0.0265
     37 H          -2.8800   23.4200   11.1900 H       1  LIG1        0.0265
     38 H          -1.4900   22.3200   11.2100 H       1  LIG1        0.0265
     39 H          -0.1000   23.9500   10.0200 H       1  LIG1        0.0269
     40 H          -1.6100   23.6900    9.1100 H       1  LIG1        0.0269
     41 H           4.1500   27.1800    4.9900 H       1  LIG1        0.0637
     42 H           5.4300   25.1900    5.5000 H       1  LIG1        0.0639
     43 O           3.4300   24.8200    9.6400 O.3     1  LIG1       -0.4931
     44 C           3.3000   25.7100   10.7600 C.3     1  LIG1        0.0789
     45 H           3.1400   25.1300   11.6700 H       1  LIG1        0.0660
     46 H           2.4600   26.3700   10.6000 H       1  LIG1        0.0660
     47 H           4.2100   26.3000   10.8600 H       1  LIG1        0.0660
     48 H           2.3500   27.0600    8.8200 H       1  LIG1        0.0673
     49 S           5.4000   23.4600    7.7400 S.O2    1  LIG1        0.0594
     50 N           5.3400   23.2300    9.5100 N.3     1  LIG1       -0.2034
     51 H           4.7700   22.4100    9.7200 H       1  LIG1        0.1442
     52 H           4.9300   24.0400    9.9400 H       1  LIG1        0.1442
     53 O           4.6600   22.3700    7.1300 O.2     1  LIG1       -0.1531
     54 O           6.7900   23.6700    7.3800 O.2     1  LIG1       -0.1531
@<TRIPOS>BOND
     1     1     2   ar
     2     1     7   ar
     3     2     3    1
     4     2     4   ar
     5     3    19    1
     6     3    25    1
     7     4     5   ar
     8     5     6   ar
     9     5    11   ar
    10     6     7   ar
    11     6     9   ar
    12     7     8    1
    13     8    12    1
    14     9    10   ar
    15    10    11   ar
    16    10    26    1
    17    11    27    1
    18    12    13    1
    19    12    28    1
    20    12    29    1
    21    13    14    1
    22    13    18    1
    23    13    30    1
    24    14    15    1
    25    14    31    1
    26    14    32    1
    27    15    16    1
    28    15    33    1
    29    15    34    1
    30    16    17    1
    31    16    35    1
    32    16    36    1
    33    17    18    1
    34    17    37    1
    35    17    38    1
    36    18    39    1
    37    18    40    1
    38    19    20   ar
    39    19    24   ar
    40    20    21   ar
    41    20    41    1
    42    21    22   ar
    43    21    42    1
    44    22    23   ar
    45    22    49    1
    46    23    24   ar
    47    23    43    1
    48    24    48    1
    49    43    44    1
    50    44    45    1
    51    44    46    1
    52    44    47    1
    53    49    50    1
    54    49    53    2
    55    49    54    2
    56    50    51    1
    57    50    52    1
